Version 4
SHEET 1 1752 680
WIRE -240 -256 -352 -256
WIRE -96 -256 -160 -256
WIRE 32 -256 -32 -256
WIRE 80 -256 32 -256
WIRE 288 -256 160 -256
WIRE -432 -192 -432 -256
WIRE 144 -80 128 -80
WIRE 192 -80 144 -80
WIRE 32 16 32 -256
WIRE 96 16 32 16
WIRE 288 32 288 -256
WIRE 288 32 160 32
WIRE 368 32 288 32
WIRE 480 32 432 32
WIRE 688 32 560 32
WIRE 768 32 688 32
WIRE 848 32 768 32
WIRE 992 32 848 32
WIRE -352 48 -512 48
WIRE -304 48 -352 48
WIRE -240 48 -256 48
WIRE -192 48 -240 48
WIRE -48 48 -112 48
WIRE 96 48 -48 48
WIRE -512 64 -512 48
WIRE -352 80 -352 48
WIRE -48 80 -48 48
WIRE 688 80 688 32
WIRE 768 80 768 32
WIRE 848 80 848 32
WIRE 992 80 992 32
WIRE 768 144 688 144
WIRE 848 144 768 144
WIRE 768 208 768 144
FLAG -432 -192 0
FLAG -352 144 0
FLAG 768 208 0
FLAG 992 160 0
FLAG -48 240 0
FLAG 192 -80 0
FLAG -512 144 0
FLAG 128 64 0
DATAFLAG 144 -80 ""
SYMBOL OpAmps\\LM308 128 -32 R0
WINDOW 3 16 85 Left 2
SYMATTR InstName U1
SYMBOL cap -368 80 R0
SYMATTR InstName C1
SYMATTR Value 1nF
SYMBOL cap -240 32 R90
WINDOW 0 0 32 VBottom 2
WINDOW 3 32 32 VTop 2
SYMATTR InstName C2
SYMATTR Value 10nF
SYMBOL cap -32 -272 R90
WINDOW 0 0 32 VBottom 2
WINDOW 3 32 32 VTop 2
SYMATTR InstName C3
SYMATTR Value 47nF
SYMBOL cap 432 16 R90
WINDOW 0 0 32 VBottom 2
WINDOW 3 32 32 VTop 2
SYMATTR InstName C4
SYMATTR Value 1µF
SYMBOL res -96 32 R90
WINDOW 0 0 56 VBottom 2
WINDOW 3 32 56 VTop 2
SYMATTR InstName R1
SYMATTR Value 10k
SYMBOL res -64 64 R0
SYMATTR InstName R2
SYMATTR Value 1000000
SYMBOL res -144 -272 R90
WINDOW 0 0 56 VBottom 2
WINDOW 3 32 56 VTop 2
SYMATTR InstName R3
SYMATTR Value 4.7k
SYMBOL res 176 -272 R90
WINDOW 0 0 56 VBottom 2
WINDOW 3 32 56 VTop 2
SYMATTR InstName R4
SYMATTR Value 1000000
SYMBOL res 576 16 R90
WINDOW 0 0 56 VBottom 2
WINDOW 3 32 56 VTop 2
SYMATTR InstName R5
SYMATTR Value 10k
SYMBOL cap 832 80 R0
SYMATTR InstName C5
SYMATTR Value 1nF
SYMBOL diode 704 144 R180
WINDOW 0 24 64 Left 2
WINDOW 3 24 0 Left 2
SYMATTR InstName D1
SYMATTR Value 1N914
SYMBOL diode 752 80 R0
SYMATTR InstName D2
SYMATTR Value 1N914
SYMBOL res -336 -272 R90
WINDOW 0 0 56 VBottom 2
WINDOW 3 32 56 VTop 2
SYMATTR InstName R6
SYMATTR Value 0
SYMBOL res 976 64 R0
SYMATTR InstName R7
SYMATTR Value 10k
SYMBOL voltage 144 16 R180
WINDOW 0 24 96 Left 2
WINDOW 3 24 16 Left 2
WINDOW 123 0 0 Left 0
WINDOW 39 0 0 Left 0
SYMATTR InstName V1
SYMATTR Value 9
SYMBOL voltage -48 144 R0
WINDOW 123 0 0 Left 0
WINDOW 39 0 0 Left 0
SYMATTR InstName V2
SYMATTR Value 4.5
SYMBOL voltage -512 48 R0
WINDOW 123 0 0 Left 0
WINDOW 39 0 0 Left 0
SYMATTR InstName V3
SYMATTR Value SINE(0 0.4 1000)
TEXT -546 232 Left 2 !.tran 10m
